

 <DUALSPHYSICS4> Copyright (C) 2018 by
 Dr Jose M. Dominguez, Dr Alejandro Crespo,
 Prof. Moncho Gomez Gesteira, Orlando Garcia-Feal, Dr Anxo Barreiro
 Dr Benedict Rogers, Dr Georgios Fourtakas, Dr Athanasios Mokos,
 Prof. Peter Stansby, Dr Renato Vacondio, Dr Ricardo Canelas,
 Dr Stephen Longshaw, Dr Corrado Altomare.

 EPHYSLAB Environmental Physics Laboratory, Universidade de Vigo
 School of Mechanical, Aerospace and Civil Engineering, University of Manchester

 DualSPHysics is free software: you can redistribute it and/or
 modify it under the terms of the GNU Lesser General Public License
 as published by the Free Software Foundation, either version 2.1 of
 the License, or (at your option) any later version.

 DualSPHysics is distributed in the hope that it will be useful,
 but WITHOUT ANY WARRANTY; without even the implied warranty of
 MERCHANTABILITY or FITNESS FOR A PARTICULAR PURPOSE.  See the
 GNU Lesser General Public License for more details.

 You should have received a copy of the GNU Lesser General Public License
 along with DualSPHysics. If not, see <http://www.gnu.org/licenses/>.


DualSPHysics4 v4.2.063 (23-07-2018)
====================================
Threads by host for parallel execution: 12
[Initialising JSphCpuSingle  03-08-2018 16:14:21]
ProgramFile=".../bin/windows/DualSPHysics4.2CPU_win64_debug.exe"
ExecutionDir=".../DualSPHysics0-4.2/src/VS"
XmlFile=".../CASE_DEBUG/CaseDebug_out/CaseDebug.xml"
OutputDir=".../examples/CASE_DEBUG/CaseDebug_out"
OutputDataDir=".../examples/CASE_DEBUG/CaseDebug_out"

*** Exception (JSphCpuSingle::LoadCaseConfig)
Text: Case configuration was not found.
File: C:\Users\Aaron\Desktop\DualSPHysics-masterG\DualSPHysics0-4.2\examples\CASE_DEBUG\CaseDebug_out/CaseDebug.xml


